!***************************************************************************************
!
! Foundational Fuel Chemistry Model Version 2 (FFCM-2)
!
! - Description: 
!     A reaction model for combustion chemistry of species up to C4 (CHEMKIN format)
!
! - Authors:
!     Yue Zhang, Wendi Dong, Laurien A. Vandewalle, Rui Xu, Gregory P. Smith, Hai Wang
!
! - Date: 
!     Jan. 2023
!
! - Contact:
!     Yue Zhang: yzhang16@stanford.edu
!     Wendi Dong: dongwd@stanford.edu
!     Gregory P. Smith: gregory.smith@sri.com
!     Hai Wang: haiwang@stanford.edu
!
!****************************************************************************************

ELEMENTS
H  O  He  Ar  N  C
END

SPECIES
H  H2  O  O2  OH  H2O  HO2  H2O2  HE  AR  N2  C  CH  CH2
CH2(S)  CH3  CH4  CO  CO2  HCO  CH2O  CH2OH  CH3O  CH3OH
C2H  C2H2  C2H3  C2H4  C2H5  C2H6  HCCO  CH2CO  CH2CHO
CH3CHO  CH3CO  H2CC  CH3O2  CH3OOH  C2H5O2  C2H5OOH  C2H2OH
C2H3OH  C2H4O  C2H5OH  C2H4OH  CH3CHOH  C3H8  NC3H7  IC3H7
C3H6  C3H5  CH3CCH2  AC3H4  PC3H4  C3H3  C2H5CHO  CH3COCH3
CH3COCH2  C2H3CHO  C3H5OH  NC3H7O2  NC3H7OOH  IC3H7O2
IC3H7OOH  C4H2  NC4H3  IC4H3  C4H4  NC4H5  IC4H5  C4H5-2
C4H6  C4H612  C4H6-2  C4H7  IC4H7  IC4H7-1  C4H81  C4H82
IC4H8  NC4H9  SC4H9  IC4H9  TC4H9  C4H10  IC4H10  H2C4O
CH2CHCHCHO  CH3CHCHCO  CH3CHCHCHO  C3H7CHO  IC3H7CHO
C2H5COCH3  C2H3COCH3  OH*  CH*
END

REACTIONS
H+O2<=>O+OH                                                 1.030e+14  0.000e+00  1.5310e+04
H2+O<=>H+OH                                                 3.820e+12  0.000e+00  7.9500e+03
  DUPLICATE
H2+O<=>H+OH                                                 7.440e+14  0.000e+00  1.9180e+04
  DUPLICATE
H2+OH<=>H+H2O                                               2.129e+08  1.510e+00  3.4370e+03
2OH<=>H2O+O                                                 3.350e+04  2.420e+00  -1.9280e+03
H2+M<=>2H+M                                                 3.660e+19  -1.400e+00  1.0439e+05
  AR/0.00/  C2H2/3.00/  C2H4/3.00/  C2H5OH/4.00/  C2H6/3.00/
  C3H6/4.00/  C3H8/4.00/  CH2O/2.50/  CH3OH/3.00/  CH4/2.00/
  CO/1.90/  CO2/3.80/  H2/2.50/  H2O/12.00/  HE/0.00/
H2+AR<=>2H+AR                                               5.473e+18  -1.100e+00  1.0439e+05
H2+HE<=>2H+HE                                               5.840e+18  -1.100e+00  1.0439e+05
2O+M<=>O2+M                                                 6.160e+15  -5.000e-01  0.0000e+00
  AR/0.00/  C2H2/3.00/  C2H4/3.00/  C2H5OH/4.00/  C2H6/3.00/
  C3H6/4.00/  C3H8/4.00/  CH2O/2.50/  CH3OH/3.00/  CH4/2.00/
  CO/1.90/  CO2/3.80/  H2/2.50/  H2O/12.00/  HE/0.00/
2O+AR<=>O2+AR                                               1.890e+13  0.000e+00  -1.7880e+03
2O+HE<=>O2+HE                                               1.890e+13  0.000e+00  -1.7880e+03
H+O+M<=>OH+M                                                5.376e+18  -1.000e+00  0.0000e+00
  AR/0.75/  C2H2/3.00/  C2H4/3.00/  C2H5OH/4.00/  C2H6/3.00/
  C3H6/4.00/  C3H8/4.00/  CH2O/2.50/  CH3OH/3.00/  CH4/2.00/
  CO/1.90/  CO2/3.80/  H2/2.50/  H2O/12.00/  HE/0.75/
H2O+M<=>H+OH+M                                              6.629e+27  -3.320e+00  1.2080e+05
  AR/1.00/  C2H2/3.00/  C2H4/3.00/  C2H6/3.00/  C3H6/4.00/
  C3H8/4.00/  CH2O/2.50/  CH3OH/3.00/  CH4/7.00/  CO/1.90/
  CO2/3.80/  H2/3.00/  H2O/0.00/  HE/1.10/  N2/2.00/
  O2/1.50/
H2O+H2O<=>H+OH+H2O                                          1.010e+26  -2.440e+00  1.2020e+05
H+O2(+M)<=>HO2(+M)                                          5.586e+12  4.400e-01  0.0000e+00
  AR/0.73/  C2H2/3.00/  C2H4/3.00/  C2H6/3.00/  C3H6/4.00/
  C3H8/4.00/  CH2O/2.50/  CH3OH/3.00/  CH4/2.00/  CO/1.90/
  CO2/2.92/  H2/2.00/  H2O/12.82/  HE/0.80/  N2/1.00/
  O2/0.78/
  LOW / 7.652e+20  -1.720e+00  5.2500e+02 /
  TROE / 5.000e-01  3.000e+01  9.000e+04  9.000e+04 /
H+HO2<=>H2+O2                                               3.315e+06  2.090e+00  -1.4550e+03
H+HO2<=>2OH                                                 6.453e+13  0.000e+00  3.0000e+02
H+HO2<=>H2O+O                                               1.600e+12  0.000e+00  0.0000e+00
HO2+O<=>O2+OH                                               1.748e+13  0.000e+00  -4.4500e+02
HO2+OH<=>H2O+O2                                             7.615e+12  0.000e+00  -1.0930e+03
  DUPLICATE
HO2+OH<=>H2O+O2                                             4.500e+14  0.000e+00  1.0930e+04
  DUPLICATE
2HO2<=>H2O2+O2                                              1.940e+11  0.000e+00  -1.4090e+03
  DUPLICATE
2HO2<=>H2O2+O2                                              1.030e+14  0.000e+00  1.1040e+04
  DUPLICATE
H2O2(+M)<=>2OH(+M)                                          1.952e+12  9.000e-01  4.8750e+04
  AR/0.99/  C2H2/3.00/  C2H4/3.00/  C2H6/3.00/  CH2O/2.50/
  CH3OH/3.00/  CH4/2.00/  CO/1.50/  CO2/1.60/  H2/3.70/
  H2O/7.50/  H2O2/7.70/  HE/0.65/  N2/1.50/  O2/1.20/
  LOW / 2.431e+24  -2.300e+00  4.8750e+04 /
  TROE / 5.800e-01  3.000e+01  9.000e+04  9.000e+04 /
H+H2O2<=>H2O+OH                                             2.410e+13  0.000e+00  3.9700e+03
H+H2O2<=>H2+HO2                                             4.820e+13  0.000e+00  7.9500e+03
H2O2+O<=>HO2+OH                                             9.630e+06  2.000e+00  3.9700e+03
H2O2+OH<=>H2O+HO2                                           1.803e+12  0.000e+00  3.1800e+02
  DUPLICATE
H2O2+OH<=>H2O+HO2                                           7.682e+13  0.000e+00  7.2700e+03
  DUPLICATE
CO+O(+M)<=>CO2(+M)                                          1.172e+13  -3.100e-01  6.9430e+03
  AR/0.87/  C2H2/3.00/  C2H4/3.00/  C2H5OH/4.00/  C2H6/3.00/
  C3H6/4.00/  C3H8/4.00/  CH2O/2.50/  CH3OH/3.00/  CH4/2.00/
  CO/1.90/  CO2/3.80/  H2/2.50/  H2O/12.00/
  LOW / 1.547e+21  -2.100e+00  5.5000e+03 /
CO+O2<=>CO2+O                                               2.090e+12  0.000e+00  4.7700e+04
CO+OH<=>CO2+H                                               6.690e+04  2.050e+00  -3.5600e+02
  DUPLICATE
CO+OH<=>CO2+H                                               5.254e+12  -6.600e-01  3.3200e+02
  DUPLICATE
CO+HO2<=>CO2+OH                                             1.570e+05  2.180e+00  1.7944e+04
HCO+M<=>CO+H+M                                              5.345e+17  -1.200e+00  1.7734e+04
  AR/0.97/  C2H2/3.00/  C2H4/3.00/  C2H5OH/4.00/  C2H6/3.00/
  C3H6/4.00/  C3H8/4.00/  CH2O/2.50/  CH3OH/3.00/  CH4/2.00/
  CO/1.50/  CO2/2.00/  H2O/12.00/  HE/1.00/
H+HCO<=>CO+H2                                               8.972e+13  0.000e+00  0.0000e+00
HCO+O<=>CO+OH                                               3.010e+13  0.000e+00  0.0000e+00
HCO+O<=>CO2+H                                               3.010e+13  0.000e+00  0.0000e+00
HCO+OH<=>CO+H2O                                             1.080e+14  0.000e+00  0.0000e+00
HCO+O2<=>CO+HO2                                             5.976e+06  1.900e+00  -1.3700e+03
HCO+HO2=>CO2+H+OH                                           3.010e+13  0.000e+00  0.0000e+00
C+OH<=>CO+H                                                 5.000e+13  0.000e+00  0.0000e+00
C+O2<=>CO+O                                                 6.620e+13  0.000e+00  6.3600e+02
CH+H<=>C+H2                                                 1.100e+14  0.000e+00  0.0000e+00
CH+O<=>CO+H                                                 5.700e+13  0.000e+00  0.0000e+00
CH+OH<=>H+HCO                                               3.000e+13  0.000e+00  0.0000e+00
CH+H2<=>CH2+H                                               1.252e+14  0.000e+00  3.3200e+03
CH+H2(+M)<=>CH3(+M)                                         5.130e+13  1.500e-01  0.0000e+00
  AR/0.70/  C2H2/3.00/  C2H4/3.00/  C2H5OH/4.00/  C2H6/3.00/
  C3H6/4.00/  C3H8/4.00/  CH2O/2.50/  CH3OH/3.00/  CH4/2.00/
  CO/1.50/  CO2/2.00/  H2/2.00/  H2O/6.00/  HE/0.70/
  LOW / 2.430e+22  -1.600e+00  0.0000e+00 /
  TROE / 5.140e-01  1.520e+02  2.285e+04  1.035e+04 /
CH+H2O<=>CH2O+H                                             4.004e+12  0.000e+00  -8.8400e+02
CH+O2<=>HCO+O                                               1.840e+08  1.430e+00  1.2000e+03
CH+O2<=>CO2+H                                               2.770e+08  1.430e+00  1.2000e+03
CH+O2<=>CO+OH                                               1.840e+08  1.430e+00  1.2000e+03
CH+O2=>CO+H+O                                               2.770e+08  1.430e+00  1.2000e+03
CH+CO(+M)<=>HCCO(+M)                                        1.020e+15  -4.000e-01  0.0000e+00
  AR/0.70/  C2H2/3.00/  C2H4/3.00/  C2H5OH/4.00/  C2H6/3.00/
  C3H6/4.00/  C3H8/4.00/  CH2O/2.50/  CH3OH/3.00/  CH4/2.00/
  CO/1.50/  CO2/2.00/  H2/2.00/  H2O/6.00/  HE/0.70/
  LOW / 3.260e+24  -2.500e+00  0.0000e+00 /
  TROE / 4.000e-01  3.000e+01  9.000e+04  9.000e+04 /
CH+CO2<=>CO+HCO                                             6.380e+07  1.510e+00  -7.1500e+02
CH2+H(+M)<=>CH3(+M)                                         2.130e+13  3.200e-01  0.0000e+00
  AR/0.70/  C2H2/3.00/  C2H4/3.00/  C2H5OH/4.00/  C2H6/3.00/
  C3H6/4.00/  C3H8/4.00/  CH2O/2.50/  CH3OH/3.00/  CH4/2.00/
  CO/1.50/  CO2/2.00/  H2/2.00/  H2O/6.00/  HE/0.70/
  LOW / 1.390e+34  -5.040e+00  7.4000e+03 /
  TROE / 4.050e-01  2.580e+02  2.811e+03  9.908e+03 /
CH2+O=>CO+2H                                                8.700e+13  0.000e+00  0.0000e+00
CH2+OH<=>CH2O+H                                             3.323e+13  1.200e-01  -1.6200e+02
CH2+OH<=>CH+H2O                                             8.630e+05  2.020e+00  6.7760e+03
CH2+HO2<=>CH2O+OH                                           2.000e+13  0.000e+00  0.0000e+00
CH2+H2<=>CH3+H                                              3.804e+05  2.300e+00  7.3510e+03
CH2+O2=>CO+H+OH                                             2.470e+12  0.000e+00  1.0000e+03
CH2+O2=>CO2+2H                                              1.687e+12  0.000e+00  1.0000e+03
CH2+O2<=>CH2O+O                                             1.570e+12  0.000e+00  1.0000e+03
CH2+O2<=>CO2+H2                                             1.830e+12  0.000e+00  1.0000e+03
CH2+O2<=>CO+H2O                                             5.200e+11  0.000e+00  1.0000e+03
C+CH2<=>C2H+H                                               5.000e+13  0.000e+00  0.0000e+00
CH+CH2<=>C2H2+H                                             4.000e+13  0.000e+00  0.0000e+00
2CH2=>C2H2+2H                                               2.000e+14  0.000e+00  1.0989e+04
2CH2<=>H2+H2CC                                              1.600e+15  0.000e+00  1.1944e+04
CH2(S)+N2<=>CH2+N2                                          1.200e+13  0.000e+00  4.7100e+02
AR+CH2(S)<=>AR+CH2                                          9.000e+12  0.000e+00  6.0000e+02
CH2(S)+HE<=>CH2+HE                                          6.620e+12  0.000e+00  7.5500e+02
CH2(S)+H<=>CH+H2                                            3.000e+13  0.000e+00  0.0000e+00
CH2(S)+O=>CO+2H                                             3.000e+13  0.000e+00  0.0000e+00
CH2(S)+OH<=>CH2O+H                                          3.000e+13  0.000e+00  0.0000e+00
CH2(S)+H2<=>CH3+H                                           6.800e+13  0.000e+00  0.0000e+00
CH2(S)+O2<=>CH2+O2                                          3.130e+13  0.000e+00  0.0000e+00
CH2(S)+H2O(+M)<=>CH3OH(+M)                                  3.128e+12  5.000e-02  -1.8970e+03
  C2H2/3.00/  C2H4/3.00/  C2H5OH/4.00/  C2H6/3.00/  C3H6/4.00/
  C3H8/4.00/  CH2O/2.50/  CH3OH/3.00/  CH4/2.00/  CO/1.50/
  CO2/2.00/  H2/2.00/  H2O/6.00/
  LOW / 1.787e+41  -7.190e+00  5.7770e+03 /
  TROE / 9.920e-01  9.430e+02  4.731e+04  4.711e+04 /
CH2(S)+H2O<=>CH2+H2O                                        1.510e+13  0.000e+00  -4.3100e+02
CH2(S)+H2O<=>CH2O+H2                                        3.360e+22  -3.330e+00  3.9500e+03
  PLOG / 1.00e-01 3.360e+22  -3.330e+00  3.9500e+03 /
  PLOG / 1.00e+00 4.800e+23  -3.630e+00  5.2200e+03 /
  PLOG / 3.00e+00 6.850e+23  -3.660e+00  5.8200e+03 /
  PLOG / 1.00e+01 1.530e+24  -3.730e+00  6.8200e+03 /
  PLOG / 3.00e+01 8.750e+23  -3.620e+00  7.6550e+03 /
  PLOG / 1.00e+02 1.270e+22  -3.060e+00  7.9500e+03 /
CH2(S)+H2O2<=>CH3O+OH                                       1.290e+14  -1.400e-01  0.0000e+00
CH2(S)+CO<=>CH2+CO                                          9.000e+12  0.000e+00  0.0000e+00
CH2(S)+CO2<=>CH2+CO2                                        1.330e+13  0.000e+00  0.0000e+00
CH2(S)+CO2<=>CH2O+CO                                        6.620e+12  0.000e+00  0.0000e+00
H+HCO(+M)<=>CH2O(+M)                                        1.812e+14  -3.000e-02  -1.4200e+02
  AR/0.70/  C2H2/3.00/  C2H4/3.00/  C2H5OH/4.00/  C2H6/3.00/
  C3H6/4.00/  C3H8/4.00/  CH2O/2.50/  CH3OH/3.00/  CH4/2.00/
  CO/1.50/  CO2/2.00/  H2/2.00/  H2O/6.00/  HE/0.70/
  LOW / 4.082e+34  -5.530e+00  6.1280e+03 /
  TROE / 7.820e-01  2.710e+02  2.755e+03  6.570e+03 /
CH2O(+M)<=>CO+H2(+M)                                        3.700e+13  0.000e+00  7.1980e+04
  AR/0.70/  C2H2/3.00/  C2H4/3.00/  C2H5OH/4.00/  C2H6/3.00/
  C3H6/4.00/  C3H8/4.00/  CH2O/2.50/  CH3OH/3.00/  CH4/2.00/
  CO/1.50/  CO2/2.00/  H2/2.00/  H2O/6.00/  HE/0.70/
  LOW / 4.400e+38  -6.100e+00  9.4000e+04 /
  TROE / 9.320e-01  1.970e+02  1.540e+03  1.030e+04 /
CH2O+H<=>H2+HCO                                             5.392e+12  3.600e-01  4.6090e+03
CH2O+H=>CO+H2+H                                             1.758e+13  5.800e-01  1.4395e+04
CH2O+O<=>HCO+OH                                             7.289e+15  -6.970e-01  5.2018e+03
CH2O+O<=>CO+H+OH                                            2.690e+21  -1.903e+00  2.2676e+04
CH2O+OH<=>H2O+HCO                                           1.265e+10  9.750e-01  2.4660e+01
CH2O+OH<=>CO+H+H2O                                          4.170e+11  6.920e-01  9.3709e+03
CH2O+O2<=>HCO+HO2                                           3.037e+05  2.500e+00  3.6460e+04
CH2O+HO2<=>H2O2+HCO                                         5.065e+04  2.500e+00  1.0210e+04
CH+CH2O<=>CH2CO+H                                           9.640e+13  0.000e+00  -5.1700e+02
CH2+CH2O<=>CH3+HCO                                          7.400e-02  4.210e+00  1.1200e+03
CH2(S)+CH2O<=>CH3+HCO                                       1.330e+13  0.000e+00  -5.5000e+02
C2H+CH2O<=>C2H2+HCO                                         5.400e+03  2.810e+00  5.8620e+03
C2H3+CH2O<=>C2H4+HCO                                        5.400e+03  2.810e+00  5.8620e+03
CH3+H(+M)<=>CH4(+M)                                         2.120e+14  0.000e+00  0.0000e+00
  AR/0.75/  C2H2/3.00/  C2H4/3.00/  C2H5OH/4.00/  C2H6/3.00/
  C3H6/4.00/  C3H8/4.00/  CH2O/2.50/  CH3OH/3.00/  CH4/2.00/
  CO/1.50/  CO2/2.00/  H2/2.00/  H2O/5.56/  HE/0.70/
  LOW / 1.276e+36  -5.570e+00  3.8180e+03 /
  TROE / 3.700e-01  3.315e+03  6.100e+01  9.000e+04 /
CH3+O<=>CH2O+H                                              5.738e+13  0.000e+00  0.0000e+00
CH3+O=>CO+H+H2                                              2.310e+13  0.000e+00  0.0000e+00
CH3+OH(+M)<=>CH3OH(+M)                                      6.210e+13  -2.000e-02  -3.3000e+01
  C2H2/3.00/  C2H4/3.00/  C2H5OH/4.00/  C2H6/3.00/  C3H6/4.00/
  C3H8/4.00/  CH2O/2.50/  CH3OH/3.00/  CH4/2.00/  CO/1.50/
  CO2/2.00/  H2/2.00/  H2O/6.00/
  LOW / 7.240e+36  -6.000e+00  3.2260e+03 /
  TROE / 1.850e-01  1.560e+02  1.675e+03  4.530e+03 /
CH3+OH<=>CH2+H2O                                            4.290e+04  2.570e+00  3.9980e+03
CH3+OH<=>CH2(S)+H2O                                         5.296e+16  -1.120e+00  1.6200e+03
  PLOG / 1.00e-01 5.296e+16  -1.120e+00  1.6200e+03 /
  PLOG / 1.00e+00 8.853e+16  -1.160e+00  2.7650e+03 /
  PLOG / 3.00e+00 1.082e+16  -8.700e-01  3.1000e+03 /
  PLOG / 1.00e+01 1.513e+14  -3.100e-01  3.1700e+03 /
  PLOG / 3.00e+01 4.177e+11  4.400e-01  2.8800e+03 /
  PLOG / 1.00e+02 7.423e+10  6.600e-01  3.7930e+03 /
CH3+OH<=>CH2O+H2                                            3.947e+11  1.400e-01  -4.8300e+02
  PLOG / 1.00e-01 3.947e+11  1.400e-01  -4.8300e+02 /
  PLOG / 1.00e+00 1.440e+13  -2.700e-01  1.2840e+03 /
  PLOG / 3.00e+00 8.983e+13  -4.700e-01  2.4460e+03 /
  PLOG / 1.00e+01 1.632e+14  -5.100e-01  3.6150e+03 /
  PLOG / 3.00e+01 1.067e+13  -1.400e-01  4.1000e+03 /
  PLOG / 1.00e+02 1.963e+10  6.800e-01  3.9600e+03 /
CH3+HO2<=>CH4+O2                                            8.774e+04  2.230e+00  -3.0220e+03
CH3+HO2<=>CH3O+OH                                           7.272e+12  0.000e+00  -5.9000e+02
CH3+O2<=>CH3O+O                                             8.132e+12  0.000e+00  2.8297e+04
CH3+O2<=>CH2O+OH                                            1.278e+02  2.860e+00  9.7680e+03
C+CH3<=>C2H2+H                                              5.000e+13  0.000e+00  0.0000e+00
CH+CH3<=>C2H3+H                                             3.693e+13  0.000e+00  0.0000e+00
CH2+CH3<=>C2H4+H                                            1.209e+14  0.000e+00  0.0000e+00
CH2(S)+CH3<=>C2H4+H                                         1.400e+13  0.000e+00  -4.9700e+02
2CH3(+M)<=>C2H6(+M)                                         2.045e+16  -9.700e-01  6.2000e+02
  AR/0.70/  C2H2/3.00/  C2H4/3.00/  C2H5OH/4.00/  C2H6/3.00/
  C3H6/4.00/  C3H8/4.00/  CH2O/2.50/  CH3OH/3.00/  CH4/2.00/
  CO/1.50/  CO2/2.00/  H2/2.00/  H2O/6.00/  HE/0.70/
  LOW / 1.708e+50  -9.670e+00  6.2200e+03 /
  TROE / 5.320e-01  1.510e+02  1.038e+03  4.970e+03 /
2CH3<=>C2H5+H                                               9.220e+12  7.000e-02  1.1135e+04
  PLOG / 1.00e-01 9.220e+12  7.000e-02  1.1135e+04 /
  PLOG / 1.00e+00 3.095e+12  2.300e-01  1.2000e+04 /
  PLOG / 3.00e+00 1.725e+11  6.000e-01  1.2200e+04 /
  PLOG / 1.00e+01 7.020e+08  1.290e+00  1.2000e+04 /
  PLOG / 3.00e+01 7.165e+05  2.190e+00  1.1400e+04 /
  PLOG / 1.00e+02 1.317e+02  3.180e+00  1.0500e+04 /
CH3+HCO<=>CH4+CO                                            2.620e+13  0.000e+00  0.0000e+00
CH2O+CH3<=>CH4+HCO                                          3.513e+01  3.360e+00  4.3100e+03
CH3O(+M)<=>CH2O+H(+M)                                       1.130e+10  1.210e+00  2.4080e+04
  AR/0.85/  C2H2/3.00/  C2H4/3.00/  C2H5OH/4.00/  C2H6/3.00/
  C3H6/4.00/  C3H8/4.00/  CH2O/2.50/  CH3OH/3.00/  CH4/2.00/
  CO/1.50/  CO2/2.00/  H2/2.00/  H2O/6.00/  HE/0.67/
  LOW / 6.020e+16  -5.500e-01  1.8020e+04 /
  TROE / 3.410e-01  2.800e+01  1.000e+03  2.339e+03 /
CH3O+H(+M)<=>CH3OH(+M)                                      2.440e+11  7.600e-01  0.0000e+00
  C2H2/3.00/  C2H4/3.00/  C2H5OH/4.00/  C2H6/3.00/  C3H6/4.00/
  C3H8/4.00/  CH2O/2.50/  CH3OH/3.00/  CH4/2.00/  CO/1.50/
  CO2/2.00/  H2/2.00/  H2O/6.00/
  LOW / 6.700e+40  -7.380e+00  9.1770e+03 /
  TROE / 6.840e-01  3.705e+04  4.149e+04  3.980e+03 /
CH3O+H<=>CH2OH+H                                            1.290e+07  1.820e+00  -7.0300e+02
CH3O+H<=>CH2O+H2                                            3.790e+13  0.000e+00  5.9600e+02
CH3O+H<=>CH3+OH                                             3.880e+14  -2.600e-01  -2.6000e+01
CH3O+H<=>CH2(S)+H2O                                         1.970e+11  4.100e-01  2.4300e+02
CH3O+O<=>CH2O+OH                                            3.780e+12  0.000e+00  0.0000e+00
CH3O+OH<=>CH2O+H2O                                          1.810e+13  0.000e+00  0.0000e+00
CH3O+HO2<=>CH2O+H2O2                                        3.010e+11  0.000e+00  0.0000e+00
CH3O+HO2<=>CH3OH+O2                                         3.010e+11  0.000e+00  0.0000e+00
CH3O+O2<=>CH2O+HO2                                          6.320e+10  0.000e+00  2.6030e+03
CH3+CH3O<=>CH2O+CH4                                         2.400e+13  0.000e+00  0.0000e+00
CH3O+CO<=>CH3+CO2                                           6.000e+12  0.000e+00  1.1000e+04
CH2OH(+M)<=>CH2O+H(+M)                                      7.594e+10  8.100e-01  3.9580e+04
  AR/0.85/  C2H2/3.00/  C2H4/3.00/  C2H5OH/4.00/  C2H6/3.00/
  C3H6/4.00/  C3H8/4.00/  CH2O/2.50/  CH3OH/3.00/  CH4/2.00/
  CO/1.50/  CO2/2.00/  H2/2.00/  H2O/6.00/  HE/0.67/
  LOW / 3.101e+13  1.800e-01  1.7230e+04 /
  TROE / 1.000e-03  5.000e+01  6.000e+02  2.780e+03 /
CH2OH+H(+M)<=>CH3OH(+M)                                     6.670e+10  9.600e-01  0.0000e+00
  C2H2/3.00/  C2H4/3.00/  C2H5OH/4.00/  C2H6/3.00/  C3H6/4.00/
  C3H8/4.00/  CH2O/2.50/  CH3OH/3.00/  CH4/2.00/  CO/1.50/
  CO2/2.00/  H2/2.00/  H2O/6.00/
  LOW / 1.340e+41  -7.380e+00  9.1770e+03 /
  TROE / 6.840e-01  3.705e+04  4.149e+04  3.980e+03 /
CH2OH+H<=>CH2O+H2                                           2.440e+13  0.000e+00  0.0000e+00
CH2OH+H<=>CH3+OH                                            1.899e+13  2.000e-01  -2.4100e+02
CH2OH+H<=>CH2(S)+H2O                                        1.280e+11  5.200e-01  2.1500e+02
CH2OH+O<=>CH2O+OH                                           9.030e+13  0.000e+00  0.0000e+00
CH2OH+OH<=>CH2O+H2O                                         2.410e+13  0.000e+00  0.0000e+00
CH2OH+HO2<=>CH2O+H2O2                                       1.210e+13  0.000e+00  0.0000e+00
CH2OH+O2<=>CH2O+HO2                                         7.230e+13  0.000e+00  3.7360e+03
CH2OH+CH3<=>CH2O+CH4                                        2.400e+13  0.000e+00  0.0000e+00
CH4+H<=>CH3+H2                                              6.952e+05  2.500e+00  9.5880e+03
CH4+O<=>CH3+OH                                              6.930e+08  1.560e+00  8.4850e+03
CH4+OH<=>CH3+H2O                                            1.000e+06  2.180e+00  2.4460e+03
CH4+HO2<=>CH3+H2O2                                          3.973e+04  2.500e+00  2.1000e+04
CH+CH4<=>C2H4+H                                             3.000e+13  0.000e+00  -3.9700e+02
CH2+CH4<=>2CH3                                              2.460e+06  2.000e+00  8.2700e+03
CH2(S)+CH4<=>2CH3                                           1.870e+13  0.000e+00  -4.9700e+02
C2H+CH4<=>C2H2+CH3                                          1.300e+13  0.000e+00  6.0000e+02
CH3OH+H<=>CH2OH+H2                                          2.093e+06  2.350e+00  5.9120e+03
CH3OH+H<=>CH3O+H2                                           5.162e+06  2.150e+00  1.1134e+04
CH3OH+O<=>CH2OH+OH                                          2.470e+13  0.000e+00  5.3060e+03
CH3OH+O<=>CH3O+OH                                           8.200e+12  0.000e+00  9.0400e+03
CH3OH+OH<=>CH2OH+H2O                                        1.420e+05  2.370e+00  -9.6520e+02
CH3OH+OH<=>CH3O+H2O                                         1.507e+04  2.700e+00  5.3300e+01
CH3OH+O2<=>CH2OH+HO2                                        4.142e+05  2.270e+00  4.2760e+04
CH3OH+HO2<=>CH2OH+H2O2                                      5.776e-05  5.160e+00  1.0160e+04
CH3OH+HO2<=>CH3O+H2O2                                       2.880e-01  4.030e+00  1.8170e+04
CH+CH3OH<=>CH2O+CH3                                         9.040e+18  -1.930e+00  0.0000e+00
CH2+CH3OH<=>CH2OH+CH3                                       3.540e-04  4.190e+00  3.6000e+03
CH2+CH3OH<=>CH3+CH3O                                        1.370e-04  4.260e+00  5.6300e+03
CH2(S)+CH3OH<=>CH3+CH3O                                     7.000e+12  0.000e+00  -5.5000e+02
CH2(S)+CH3OH<=>CH2OH+CH3                                    2.000e+13  0.000e+00  -5.5000e+02
CH3+CH3OH<=>CH2OH+CH4                                       3.320e+02  3.030e+00  8.7200e+03
CH3+CH3OH<=>CH3O+CH4                                        1.070e+04  2.270e+00  8.7100e+03
C2H+CH3OH<=>C2H2+CH2OH                                      6.000e+12  0.000e+00  0.0000e+00
C2H+CH3OH<=>C2H2+CH3O                                       1.200e+12  0.000e+00  0.0000e+00
C2H3+CH3OH<=>C2H4+CH2OH                                     3.200e+01  3.200e+00  7.1750e+03
C2H3+CH3OH<=>C2H4+CH3O                                      1.450e+01  3.100e+00  6.9400e+03
CH3+O2(+M)<=>CH3O2(+M)                                      7.830e+08  1.200e+00  0.0000e+00
  AR/0.70/  C2H2/3.00/  C2H4/3.00/  C2H5OH/4.00/  C2H6/3.00/
  C3H6/4.00/  C3H8/4.00/  CH2O/2.50/  CH3OH/3.00/  CH4/2.00/
  CO/1.50/  CO2/2.00/  H2/2.00/  H2O/6.00/  HE/0.70/
  LOW / 5.800e+25  -3.300e+00  0.0000e+00 /
  TROE / 4.870e-01  3.000e+01  2.594e+03  6.266e+03 /
2CH3O2=>2CH3O+O2                                            5.380e+13  -8.900e-01  8.6300e+02
2CH3O2=>CH2O+CH3OH+O2                                       1.110e+11  -4.900e-01  -1.7680e+03
CH3OOH(+M)<=>CH3O+OH(+M)                                    4.050e+19  -1.150e+00  4.4260e+04
  AR/0.70/  C2H2/3.00/  C2H4/3.00/  C2H5OH/4.00/  C2H6/3.00/
  C3H6/4.00/  C3H8/4.00/  CH2O/2.50/  CH3OH/3.00/  CH4/2.00/
  CO/1.50/  CO2/2.00/  H2/2.00/  H2O/6.00/  HE/0.70/
  LOW / 3.890e+42  -7.500e+00  4.6760e+04 /
  TROE / 8.380e-01  3.656e+04  4.990e+02  9.990e+03 /
CH3O2+H<=>CH3O+OH                                           9.640e+13  0.000e+00  0.0000e+00
CH3O2+O<=>CH3O+O2                                           1.220e+13  0.000e+00  -4.4500e+02
CH3O2+OH<=>CH3O+HO2                                         5.110e+15  -8.100e-01  0.0000e+00
CH3O2+O2=>CO+H2O+HO2                                        4.670e+02  2.900e+00  4.1470e+04
CH3O2+O2=>CH2O+OH+O2                                        2.019e+13  0.000e+00  1.7420e+04
CH3O2+HO2<=>CH3OOH+O2                                       2.280e+11  0.000e+00  -1.4900e+03
CH3O2+HO2=>CH2O+H2O+O2                                      2.530e+10  0.000e+00  -1.4900e+03
CH3O2+CO<=>CH3O+CO2                                         1.570e+05  2.180e+00  1.7940e+04
CH3+CH3O2<=>2CH3O                                           4.631e+12  0.000e+00  -1.4100e+03
CH3O2+CH4<=>CH3+CH3OOH                                      1.710e+11  0.000e+00  1.8480e+04
C2H3+CH3O2<=>C2H2+CH3OOH                                    3.010e+11  0.000e+00  0.0000e+00
C2H3+CH3O2<=>CH2CHO+CH3O                                    2.410e+13  0.000e+00  0.0000e+00
C2H4+CH3O2<=>C2H4O+CH3O                                     3.790e+12  0.000e+00  1.7865e+04
CH3OOH+H<=>CH3O2+H2                                         8.770e+10  0.000e+00  1.8600e+03
CH3OOH+H<=>CH3O+H2O                                         7.250e+10  0.000e+00  1.8600e+03
CH3OOH+H=>CH2O+H2+OH                                        8.430e+09  0.000e+00  1.8600e+03
CH3OOH+O<=>CH3O2+OH                                         2.000e+12  0.000e+00  4.8900e+03
CH3OOH+O=>CH2O+2OH                                          2.270e+13  0.000e+00  4.8900e+03
CH3OOH+O2=>CH2O+HO2+OH                                      3.580e+05  2.270e+00  4.2760e+04
CH3OOH+OH<=>CH3O2+H2O                                       1.070e+12  0.000e+00  -4.3700e+02
CH3OOH+OH=>CH2O+H2O+OH                                      7.230e+11  0.000e+00  -2.5800e+02
CH3OOH+HO2<=>CH3O2+H2O2                                     4.110e+04  2.500e+00  1.0206e+04
CH3+CH3OOH=>CH2O+CH4+OH                                     3.320e+02  3.030e+00  8.7200e+03
C2H+O<=>CH+CO                                               5.400e+13  0.000e+00  0.0000e+00
C2H+O2<=>CO+HCO                                             1.630e+14  -3.500e-01  0.0000e+00
H+HCCO<=>CH2(S)+CO                                          1.320e+14  0.000e+00  0.0000e+00
C2H+OH<=>H+HCCO                                             2.000e+13  0.000e+00  0.0000e+00
HCCO+O=>2CO+H                                               1.730e+14  -1.100e-01  0.0000e+00
HCCO+O<=>CH+CO2                                             2.950e+13  0.000e+00  1.1130e+03
HCCO+O2=>CO+CO2+H                                           2.220e+12  0.000e+00  8.5400e+02
HCCO+OH=>CH2O+CO                                            1.201e+16  -5.900e-01  1.4500e+02
HCCO+OH=>CO+H+HCO                                           5.838e+13  1.300e-01  -2.1500e+02
CH+HCCO<=>C2H2+CO                                           5.000e+13  0.000e+00  0.0000e+00
CH2+HCCO<=>C2H3+CO                                          3.000e+13  0.000e+00  0.0000e+00
2HCCO=>C2H2+2CO                                             9.267e+12  0.000e+00  0.0000e+00
C2H2(+M)<=>H2CC(+M)                                         1.023e+15  -5.200e-01  5.0750e+04
  AR/0.70/  C2H2/3.00/  C2H4/3.00/  C2H5OH/4.00/  C2H6/3.00/
  C3H6/4.00/  C3H8/4.00/  CH2O/2.50/  CH3OH/3.00/  CH4/2.00/
  CO/1.50/  CO2/2.00/  H2/2.00/  H2O/6.00/  HE/0.70/
  LOW / 3.133e+15  -6.400e-01  4.9700e+04 /
C2H+H2<=>C2H2+H                                             1.933e+06  2.320e+00  8.8200e+02
C2H+H(+M)<=>C2H2(+M)                                        2.250e+13  3.200e-01  0.0000e+00
  AR/0.70/  C2H2/3.00/  C2H4/3.00/  C2H5OH/4.00/  C2H6/3.00/
  C3H6/4.00/  C3H8/4.00/  CH2O/2.50/  CH3OH/3.00/  CH4/2.00/
  CO/1.50/  CO2/2.00/  H2/2.00/  H2O/6.00/  HE/0.70/
  LOW / 3.750e+33  -4.800e+00  1.9000e+03 /
  TROE / 6.460e-01  1.320e+01  1.315e+03  5.566e+03 /
C2H2+O<=>H+HCCO                                             9.584e+08  1.400e+00  2.2060e+03
C2H2+O<=>CH2+CO                                             1.885e+08  1.400e+00  2.2060e+03
C2H2+OH<=>CH2CO+H                                           1.824e+04  2.280e+00  -2.9200e+02
  PLOG / 2.50e-02 1.824e+04  2.280e+00  -2.9200e+02 /
  PLOG / 1.00e-01 3.623e+05  1.920e+00  5.9800e+02 /
  PLOG / 1.00e+00 9.034e+06  1.550e+00  2.1060e+03 /
  PLOG / 1.00e+01 6.118e+06  1.650e+00  3.4000e+03 /
  PLOG / 1.00e+02 1.752e+04  2.450e+00  4.4770e+03 /
C2H2+OH<=>C2H+H2O                                           2.630e+06  2.140e+00  1.7060e+04
C2H2+OH<=>CH3+CO                                            4.370e+06  1.400e+00  2.2700e+02
  PLOG / 2.50e-02 4.370e+06  1.400e+00  2.2700e+02 /
  PLOG / 1.00e-01 7.650e+07  1.050e+00  1.1150e+03 /
  PLOG / 1.00e+00 1.280e+09  7.300e-01  2.5800e+03 /
  PLOG / 1.00e+01 4.310e+08  9.200e-01  3.7360e+03 /
  PLOG / 1.00e+02 8.250e+05  1.770e+00  4.7000e+03 /
C2H2+HO2<=>CH2CO+OH                                         7.750e+06  1.600e+00  1.5300e+04
C2H2+HO2=>H+HCCO+OH                                         2.297e+07  1.600e+00  1.5300e+04
H+H2CC<=>C2H2+H                                             5.000e+13  0.000e+00  0.0000e+00