"""
***************************************************************************************

 Foundational Fuel Chemistry Model Version 2 (FFCM-2)

 - Description:
     A reaction model for combustion chemistry of species up to C4 (Cantera format)

 - Authors:
     Yue Zhang, Wendi Dong, Laurien A. Vandewalle, Rui Xu, Gregory P. Smith, Hai Wang

 - Date:
     Jan. 2023

 - Contact:
     Yue Zhang: yzhang16@stanford.edu
     Wendi Dong: dongwd@stanford.edu
     Gregory P. Smith: gregory.smith@sri.com
     Hai Wang: haiwang@stanford.edu

****************************************************************************************

"""

units(length='cm', time='s', quantity='mol', act_energy='cal/mol')

ideal_gas(name='gas',
          elements="H O He Ar N C",
          species="""H           H2          O           O2
                     OH          H2O         HO2         H2O2
                     HE          AR          N2          C
                     CH          CH2         CH2(S)      CH3
                     CH4         CO          CO2         HCO
                     CH2O        CH2OH       CH3O        CH3OH
                     C2H         C2H2        C2H3        C2H4
                     C2H5        C2H6        HCCO        CH2CO
                     CH2CHO      CH3CHO      CH3CO       H2CC
                     CH3O2       CH3OOH      C2H5O2      C2H5OOH
                     C2H2OH      C2H3OH      C2H4O       C2H5OH
                     C2H4OH      CH3CHOH     C3H8        NC3H7
                     IC3H7       C3H6        C3H5        CH3CCH2
                     AC3H4       PC3H4       C3H3        C2H5CHO
                     CH3COCH3    CH3COCH2    C2H3CHO     C3H5OH
                     NC3H7O2     NC3H7OOH    IC3H7O2     IC3H7OOH
                     C4H2        NC4H3       IC4H3       C4H4
                     NC4H5       IC4H5       C4H5-2      C4H6
                     C4H612      C4H6-2      C4H7        IC4H7
                     IC4H7-1     C4H81       C4H82       IC4H8
                     NC4H9       SC4H9       IC4H9       TC4H9
                     C4H10       IC4H10      H2C4O       CH2CHCHCHO
                     CH3CHCHCO   CH3CHCHCHO  C3H7CHO     IC3H7CHO
                     C2H5COCH3   C2H3COCH3   OH*         CH*""",
          reactions='all',
          transport='Mix',
          initial_state=state(temperature=300.0, pressure=OneAtm))

#-------------------------------------------------------------------------------
# Species data
#-------------------------------------------------------------------------------

species(name='H',
        atoms='H:1',
        thermo=(NASA([200.00, 1000.00],
                     [ 2.50000000E+00,  0.00000000E+00,  0.00000000E+00,
                       0.00000000E+00,  0.00000000E+00,  2.54736600E+04,
                      -4.46682850E-01]),
                NASA([1000.00, 6000.00],
                     [ 2.50000000E+00,  0.00000000E+00,  0.00000000E+00,
                       0.00000000E+00,  0.00000000E+00,  2.54736600E+04,
                      -4.46682850E-01])),
        transport=gas_transport(geom='atom',
                                diam=2.05,
                                well_depth=145.0))

species(name='H2',
        atoms='H:2',
        thermo=(NASA([200.00, 1000.00],
                     [ 2.34433112E+00,  7.98052075E-03, -1.94781510E-05,
                       2.01572094E-08, -7.37611761E-12, -9.17935173E+02,
                       6.83010238E-01]),
                NASA([1000.00, 6000.00],
                     [ 2.93286575E+00,  8.26608026E-04, -1.46402364E-07,
                       1.54100414E-11, -6.88804800E-16, -8.13065581E+02,
                      -1.02432865E+00])),
        transport=gas_transport(geom='linear',
                                diam=2.92,
                                well_depth=38.0,
                                polar=0.79,
                                rot_relax=280.0))

species(name='O',
        atoms='O:1',
        thermo=(NASA([200.00, 1000.00],
                     [ 3.16826710E+00, -3.27931884E-03,  6.64306396E-06,
                      -6.12806624E-09,  2.11265971E-12,  2.91222592E+04,
                       2.05193346E+00]),
                NASA([1000.00, 6000.00],
                     [ 2.54363697E+00, -2.73162486E-05, -4.19029520E-09,
                       4.95481845E-12, -4.79553694E-16,  2.92260120E+04,
                       4.92229457E+00])),
        transport=gas_transport(geom='atom',
                                diam=2.75,
                                well_depth=80.0))

species(name='O2',
        atoms='O:2',
        thermo=(NASA([200.00, 1000.00],
                     [ 3.78245636E+00, -2.99673416E-03,  9.84730201E-06,
                      -9.68129509E-09,  3.24372837E-12, -1.06394356E+03,
                       3.65767573E+00]),
                NASA([1000.00, 6000.00],
                     [ 3.66096065E+00,  6.56365811E-04, -1.41149627E-07,
                       2.05797935E-11, -1.29913436E-15, -1.21597718E+03,
                       3.41536279E+00])),
        transport=gas_transport(geom='linear',
                                diam=3.458,
                                well_depth=107.4,
                                polar=1.6,
                                rot_relax=3.8))

species(name='OH',
        atoms='H:1 O:1',
        thermo=(NASA([200.00, 1000.00],
                     [ 3.99198424E+00, -2.40106655E-03,  4.61664033E-06,
                      -3.87916306E-09,  1.36319502E-12,  3.36889836E+03,
                      -1.03998477E-01]),
                NASA([1000.00, 6000.00],
                     [ 2.83853033E+00,  1.10741289E-03, -2.94000209E-07,
                       4.20698729E-11, -2.42289890E-15,  3.69780808E+03,
                       5.84494652E+00])),
        transport=gas_transport(geom='linear',
                                diam=2.75,
                                well_depth=80.0))

species(name='H2O',
        atoms='H:2 O:1',
        thermo=(NASA([200.00, 1000.00],
                     [ 4.19863520E+00, -2.03640170E-03,  6.52034160E-06,
                      -5.48792690E-09,  1.77196800E-12, -3.02937260E+04,
                      -8.49009010E-01]),
                NASA([1000.00, 6000.00],
                     [ 2.67703890E+00,  2.97318160E-03, -7.73768890E-07,
                       9.44335140E-11, -4.26899910E-15, -2.98858940E+04,
                       6.88255000E+00])),
        transport=gas_transport(geom='nonlinear',
                                diam=2.605,
                                well_depth=572.4,
                                dipole=1.844,
                                rot_relax=4.0))

species(name='HO2',
        atoms='H:1 O:2',
        thermo=(NASA([200.00, 1000.00],
                     [ 4.30179807E+00, -4.74912097E-03,  2.11582905E-05,
                      -2.42763914E-08,  9.29225225E-12,  2.64018485E+02,
                       3.71666220E+00]),
                NASA([1000.00, 5000.00],
                     [ 4.17228741E+00,  1.88117627E-03, -3.46277286E-07,
                       1.94657549E-11,  1.76256905E-16,  3.10206839E+01,
                       2.95767672E+00])),
        transport=gas_transport(geom='nonlinear',
                                diam=3.458,
                                well_depth=107.4,
                                rot_relax=1.0))

species(name='H2O2',
        atoms='H:2 O:2',
        thermo=(NASA([200.00, 1000.00],
                     [ 4.31515149E+00, -8.47390622E-04,  1.76404323E-05,
                      -2.26762944E-08,  9.08950158E-12, -1.77067437E+04,
                       3.27373319E+00]),
                NASA([1000.00, 6000.00],
                     [ 4.57977305E+00,  4.05326003E-03, -1.29844730E-06,
                       1.98211400E-10, -1.13968792E-14, -1.80071775E+04,
                       6.64970694E-01])),
        transport=gas_transport(geom='nonlinear',
                                diam=3.458,
                                well_depth=107.4,
                                rot_relax=3.8))

species(name='HE',
        atoms='He:1',
        thermo=(NASA([200.00, 1000.00],
                     [ 2.50000000E+00,  0.00000000E+00,  0.00000000E+00,
                       0.00000000E+00,  0.00000000E+00, -7.45375000E+02,
                       9.28723974E-01]),
                NASA([1000.00, 6000.00],
                     [ 2.50000000E+00,  0.00000000E+00,  0.00000000E+00,
                       0.00000000E+00,  0.00000000E+00, -7.45375000E+02,
                       9.28723974E-01])),
        transport=gas_transport(geom='atom',
                                diam=2.576,
                                well_depth=10.2))

species(name='AR',
        atoms='Ar:1',
        thermo=(NASA([200.00, 1000.00],
                     [ 2.50000000E+00,  0.00000000E+00,  0.00000000E+00,
                       0.00000000E+00,  0.00000000E+00, -7.45375000E+02,
                       4.37967491E+00]),
                NASA([1000.00, 6000.00],
                     [ 2.50000000E+00,  0.00000000E+00,  0.00000000E+00,
                       0.00000000E+00,  0.00000000E+00, -7.45375000E+02,
                       4.37967491E+00])),
        transport=gas_transport(geom='atom',
                                diam=3.33,
                                well_depth=136.5))

species(name='N2',
        atoms='N:2',
        thermo=(NASA([200.00, 1000.00],
                     [ 3.53100528E+00, -1.23660988E-04, -5.02999433E-07,
                       2.43530612E-09, -1.40881235E-12, -1.04697628E+03,
                       2.96747038E+00]),
                NASA([1000.00, 6000.00],
                     [ 2.95257637E+00,  1.39690040E-03, -4.92631603E-07,
                       7.86010195E-11, -4.60755204E-15, -9.23948688E+02,
                       5.87188762E+00])),
        transport=gas_transport(geom='linear',
                                diam=3.621,
                                well_depth=97.53,
                                polar=1.76,
                                rot_relax=4.0))

species(name='C',
        atoms='C:1',
        thermo=(NASA([200.00, 1000.00],
                     [ 2.55423950E+00, -3.21537720E-04,  7.33792230E-07,
                      -7.32234870E-10,  2.66521440E-13,  8.54426810E+04,
                       4.53130850E+00]),
                NASA([1000.00, 6000.00],
                     [ 2.60558300E+00, -1.95934340E-04,  1.06737220E-07,
                      -1.64239400E-11,  8.18705800E-16,  8.54117420E+04,
                       4.19238680E+00])),
        transport=gas_transport(geom='atom',
                                diam=3.298,
                                well_depth=71.4))

species(name='CH',
        atoms='C:1 H:1',
        thermo=(NASA([200.00, 1000.00],
                     [ 3.48975830E+00,  3.24321600E-04, -1.68997510E-06,
                       3.16284200E-09, -1.40618030E-12,  7.06126460E+04,
                       2.08428410E+00]),
                NASA([1000.00, 6000.00],
                     [ 2.52093690E+00,  1.76536390E-03, -4.61476600E-07,
                       5.92896750E-11, -3.34745010E-15,  7.09467690E+04,
                       7.40518290E+00])),
        transport=gas_transport(geom='linear',
                                diam=2.75,
                                well_depth=80.0,
                                rot_relax=1.0))

species(name='CH2',
        atoms='C:1 H:2',
        thermo=(NASA([200.00, 1000.00],
                     [ 3.71757846E+00,  1.27391260E-03,  2.17347251E-06,
                      -3.48858500E-09,  1.65208866E-12,  4.58723866E+04,
                       1.75297945E+00]),
                NASA([1000.00, 6000.00],
                     [ 3.14631886E+00,  3.03671259E-03, -9.96474439E-07,
                       1.50483580E-10, -8.57335515E-15,  4.60412605E+04,
                       4.72341711E+00])),
        transport=gas_transport(geom='nonlinear',
                                diam=3.8,
                                well_depth=144.0,
                                rot_relax=1.0))

species(name='CH2(S)',
        atoms='C:1 H:2',
        thermo=(NASA([200.00, 1000.00],
                     [ 4.19331325E+00, -2.33105184E-03,  8.15676451E-06,
                      -6.62985981E-09,  1.93233199E-12,  5.03662246E+04,
                      -7.46734310E-01]),
                NASA([1000.00, 6000.00],
                     [ 3.13501686E+00,  2.89593926E-03, -8.16668090E-07,
                       1.13572697E-10, -6.36262835E-15,  5.05040504E+04,
                       4.06030621E+00])),
        transport=gas_transport(geom='nonlinear',
                                diam=3.8,
                                well_depth=144.0,
                                rot_relax=1.0))

species(name='CH3',
        atoms='C:1 H:3',
        thermo=(NASA([200.00, 1000.00],
                     [ 3.65717970E+00,  2.12659790E-03,  5.45838830E-06,
                      -6.61810030E-09,  2.46570740E-12,  1.64227160E+04,
                       1.67353540E+00]),
                NASA([1000.00, 6000.00],
                     [ 2.97812060E+00,  5.79785200E-03, -1.97558000E-06,
                       3.07297900E-10, -1.79174160E-14,  1.65095130E+04,
                       4.72247990E+00])),
        transport=gas_transport(geom='nonlinear',
                                diam=3.8,
                                well_depth=144.0,
                                rot_relax=1.0))

species(name='CH4',
        atoms='C:1 H:4',
        thermo=(NASA([200.00, 1000.00],
                     [ 5.14911468E+00, -1.36622009E-02,  4.91453921E-05,
                      -4.84246767E-08,  1.66603441E-11, -1.02465983E+04,
                      -4.63848842E+00]),
                NASA([1000.00, 6000.00],
                     [ 1.65326226E+00,  1.00263099E-02, -3.31661238E-06,
                       5.36483138E-10, -3.14696758E-14, -1.00095936E+04,
                       9.90506283E+00])),
        transport=gas_transport(geom='nonlinear',
                                diam=3.746,
                                well_depth=141.4,
                                polar=2.6,
                                rot_relax=13.0))

species(name='CO',
        atoms='C:1 O:1',
        thermo=(NASA([200.00, 1000.00],
                     [ 3.57953350E+00, -6.10353690E-04,  1.01681430E-06,
                       9.07005860E-10, -9.04424490E-13, -1.43440860E+04,
                       3.50840930E+00]),
                NASA([1000.00, 6000.00],
                     [ 3.04848590E+00,  1.35172810E-03, -4.85794050E-07,
                       7.88536440E-11, -4.69807460E-15, -1.42661170E+04,
                       6.01709770E+00])),
        transport=gas_transport(geom='linear',
                                diam=3.65,
                                well_depth=98.1,
                                polar=1.95,
                                rot_relax=1.8))

species(name='CO2',
        atoms='C:1 O:2',
        thermo=(NASA([200.00, 1000.00],
                     [ 2.35681300E+00,  8.98412990E-03, -7.12206320E-06,
                       2.45730080E-09, -1.42885480E-13, -4.83719710E+04,
                       9.90090350E+00]),
                NASA([1000.00, 6000.00],
                     [ 4.63651110E+00,  2.74145690E-03, -9.95897590E-07,
                       1.60386660E-10, -9.16198570E-15, -4.90249040E+04,
                      -1.93489550E+00])),
        transport=gas_transport(geom='linear',
                                diam=3.763,
                                well_depth=244.0,
                                polar=2.65,
                                rot_relax=2.1))

species(name='HCO',
        atoms='C:1 H:1 O:1',
        thermo=(NASA([200.00, 1000.00],
                     [ 4.23754610E+00, -3.32075257E-03,  1.40030264E-05,
                      -1.34239995E-08,  4.37416208E-12,  3.87241185E+03,
                       3.30834869E+00]),
                NASA([1000.00, 6000.00],
                     [ 3.92001542E+00,  2.52279324E-03, -6.71004164E-07,
                       1.05615948E-10, -7.43798261E-15,  3.65342928E+03,
                       3.58077056E+00])),
        transport=gas_transport(geom='nonlinear',
                                diam=3.59,
                                well_depth=498.0,
                                rot_relax=2.0))

species(name='CH2O',
        atoms='C:1 H:2 O:1',
        thermo=(NASA([200.00, 1000.00],
                     [ 4.79372312E+00, -9.90833322E-03,  3.73219990E-05,
                      -3.79285237E-08,  1.31772641E-11, -1.43791953E+04,
                       6.02798058E-01]),
                NASA([1000.00, 6000.00],
                     [ 3.16952665E+00,  6.19320560E-03, -2.25056366E-06,
                       3.65975660E-10, -2.20149458E-14, -1.45486831E+04,
                       6.04207898E+00])),
        transport=gas_transport(geom='nonlinear',
                                diam=3.59,
                                well_depth=498.0,
                                rot_relax=2.0))

species(name='CH2OH',
        atoms='C:1 H:3 O:1',
        thermo=(NASA([200.00, 1000.00],
                     [ 4.47834367E+00, -1.35070310E-03,  2.78484980E-05,
                      -3.64869060E-08,  1.47907450E-11, -3.50072890E+03,
                       3.30913500E+00]),
                NASA([1000.00, 6000.00],
                     [ 5.09314370E+00,  5.94761260E-03, -2.06497460E-06,
                       3.23008173E-10, -1.88125902E-14, -4.03409640E+03,
                      -1.84691493E+00])),
        transport=gas_transport(geom='nonlinear',
                                diam=3.69,
                                well_depth=417.0,
                                dipole=1.7,
                                rot_relax=2.0))

species(name='CH3O',
        atoms='C:1 H:3 O:1',
        thermo=(NASA([200.00, 1000.00],
                     [ 3.71180502E+00, -2.80463306E-03,  3.76550971E-05,
                      -4.73072089E-08,  1.86588420E-11,  1.29569760E+03,
                       6.57240864E+00]),
                NASA([1000.00, 6000.00],
                     [ 4.75779238E+00,  7.44142474E-03, -2.69705176E-06,
                       4.38090504E-10, -2.63537098E-14,  3.78111940E+02,
                      -1.96680028E+00])),
        transport=gas_transport(geom='nonlinear',
                                diam=3.69,
                                well_depth=417.0,
                                dipole=1.7,
                                rot_relax=2.0))

species(name='CH3OH',
        atoms='C:1 H:4 O:1',
        thermo=(NASA([200.00, 1000.00],
                     [ 5.65851051E+00, -1.62983419E-02,  6.91938156E-05,
                      -7.58372926E-08,  2.80427550E-11, -2.56119736E+04,
                      -8.97330508E-01]),
                NASA([1000.00, 6000.00],
                     [ 3.52726795E+00,  1.03178783E-02, -3.62892944E-06,
                       5.77448016E-10, -3.42182632E-14, -2.60028834E+04,
                       5.16758693E+00])),
        transport=gas_transport(geom='nonlinear',
                                diam=3.626,
                                well_depth=481.8,
                                rot_relax=1.0))

species(name='C2H',
        atoms='C:2 H:1',
        thermo=(NASA([200.00, 1000.00],
                     [ 2.89867676E+00,  1.32988489E-02, -2.80733327E-05,
                       2.89484755E-08, -1.07502351E-11,  6.70616050E+04,
                       6.18547632E+00]),
                NASA([1000.00, 6000.00],
                     [ 3.66270248E+00,  3.82492252E-03, -1.36632500E-06,
                       2.13455040E-10, -1.23216848E-14,  6.71683790E+04,
                       3.92205792E+00])),
        transport=gas_transport(geom='linear',
                                diam=4.1,
                                well_depth=209.0,
                                rot_relax=2.5))

species(name='C2H2',
        atoms='C:2 H:2',
        thermo=(NASA([200.00, 1000.00],
                     [ 8.08679682E-01,  2.33615762E-02, -3.55172234E-05,
                       2.80152958E-08, -8.50075165E-12,  2.63076808E+04,
                       1.39396761E+01]),
                NASA([1000.00, 6000.00],
                     [ 4.65878489E+00,  4.88396667E-03, -1.60828888E-06,
                       2.46974544E-10, -1.38605959E-14,  2.56371042E+04,
                      -3.99838194E+00])),
        transport=gas_transport(geom='linear',
                                diam=4.1,
                                well_depth=209.0,
                                rot_relax=2.5))

species(name='C2H3',
        atoms='C:2 H:3',
        thermo=(NASA([200.00, 1000.00],
                     [ 3.36377642E+00,  2.65765722E-04,  2.79620704E-05,
                      -3.72986942E-08,  1.51590176E-11,  3.44749589E+04,
                       7.91510092E+00]),
                NASA([1000.00, 6000.00],
                     [ 4.15026763E+00,  7.54021341E-03, -2.62997847E-06,
                       4.15974048E-10, -2.45407509E-14,  3.38566380E+04,
                       1.72812235E+00])),
        transport=gas_transport(geom='nonlinear',
                                diam=4.1,
                                well_depth=209.0,
                                rot_relax=1.0))

species(name='C2H4',
        atoms='C:2 H:4',
        thermo=(NASA([200.00, 1000.00],
                     [ 3.95920063E+00, -7.57051373E-03,  5.70989993E-05,
                      -6.91588352E-08,  2.69884190E-11,  5.08977598E+03,
                       4.09730213E+00]),
                NASA([1000.00, 6000.00],
                     [ 3.99182724E+00,  1.04833908E-02, -3.71721342E-06,
                       5.94628366E-10, -3.53630386E-14,  4.26865851E+03,
                      -2.69081762E-01])),
        transport=gas_transport(geom='nonlinear',
                                diam=3.971,
                                well_depth=280.8,
                                rot_relax=1.5))

species(name='C2H5',
        atoms='C:2 H:5',
        thermo=(NASA([200.00, 1000.00],
                     [ 4.24185905E+00, -3.56905235E-03,  4.82667202E-05,
                      -5.85401009E-08,  2.25804514E-11,  1.29690344E+04,
                       4.44703782E+00]),
                NASA([1000.00, 6000.00],
                     [ 4.32195633E+00,  1.23930542E-02, -4.39680960E-06,
                       7.03519917E-10, -4.18435239E-14,  1.21759475E+04,
                       1.71103809E-01])),
        transport=gas_transport(geom='nonlinear',
                                diam=4.302,
                                well_depth=252.3,
                                rot_relax=1.5))

species(name='C2H6',
        atoms='C:2 H:6',
        thermo=(NASA([200.00, 1000.00],
                     [ 4.29142572E+00, -5.50154901E-03,  5.99438458E-05,
                      -7.08466469E-08,  2.68685836E-11, -1.15222056E+04,
                       2.66678994E+00]),
                NASA([1000.00, 6000.00],
                     [ 4.04666411E+00,  1.53538802E-02, -5.47039485E-06,
                       8.77826544E-10, -5.23167531E-14, -1.24473499E+04,
                      -9.68698313E-01])),
        transport=gas_transport(geom='nonlinear',
                                diam=4.302,
                                well_depth=252.3,
                                rot_relax=1.5))

species(name='HCCO',
        atoms='C:2 H:1 O:1',
        thermo=(NASA([200.00, 1000.00],
                     [ 1.87607969E+00,  2.21205418E-02, -3.58869325E-05,
                       3.05402541E-08, -1.01281069E-11,  2.01633840E+04,
                       1.36968290E+01]),
                NASA([1000.00, 6000.00],
                     [ 5.91479333E+00,  3.71408730E-03, -1.30137010E-06,
                       2.06473345E-10, -1.21476759E-14,  1.93596301E+04,
                      -5.50567269E+00])),
        transport=gas_transport(geom='nonlinear',
                                diam=2.5,
                                well_depth=150.0,
                                rot_relax=1.0))

species(name='CH2CO',
        atoms='C:2 H:2 O:1',
        thermo=(NASA([200.00, 1000.00],
                     [ 2.13241136E+00,  1.81319455E-02, -1.74093315E-05,
                       9.35336040E-09, -2.01724844E-12, -7.14808520E+03,
                       1.33807969E+01]),
                NASA([1000.00, 6000.00],
                     [ 5.75871449E+00,  6.35124053E-03, -2.25955361E-06,
                       3.62321512E-10, -2.15855515E-14, -8.08533464E+03,
                      -4.96490444E+00])),
        transport=gas_transport(geom='nonlinear',
                                diam=3.97,
                                well_depth=436.0,
                                rot_relax=2.0))

species(name='CH2CHO',
        atoms='C:2 H:3 O:1',
        thermo=(NASA([200.00, 1000.00],
                     [ 2.66873956E+00,  9.62329538E-03,  1.60617438E-05,
                      -2.87681820E-08,  1.25030066E-11,  5.64138429E+02,
                       1.25694476E+01]),
                NASA([1000.00, 6000.00],
                     [ 5.91636535E+00,  8.84650426E-03, -3.14954895E-06,
                       5.05413189E-10, -3.01304621E-14, -7.03089920E+02,
                      -6.10649981E+00])),
        transport=gas_transport(geom='nonlinear',
                                diam=3.97,
                                well_depth=436.0,
                                rot_relax=2.0))

species(name='CH3CHO',
        atoms='C:2 H:4 O:1',
        thermo=(NASA([200.00, 1000.00],
                     [ 4.72945950E+00, -3.19328580E-03,  4.75349210E-05,
                      -5.74586110E-08,  2.19311120E-11, -2.15728780E+04,
                       4.10301590E+00]),
                NASA([1000.00, 6000.00],
                     [ 5.40411080E+00,  1.17230590E-02, -4.22631370E-06,
                       6.83724510E-10, -4.09848630E-14, -2.25931220E+04,
                      -3.48079170E+00])),
        transport=gas_transport(geom='nonlinear',
                                diam=3.97,
                                well_depth=436.0,
                                rot_relax=2.0))

species(name='CH3CO',
        atoms='C:2 H:3 O:1',
        thermo=(NASA([200.00, 1000.00],
                     [ 4.03587050E+00,  8.77294870E-04,  3.07100100E-05,
                      -3.92475650E-08,  1.52968690E-11, -2.68207380E+03,
                       7.86176820E+00]),
                NASA([1000.00, 6000.00],
                     [ 5.31371650E+00,  9.17377930E-03, -3.32203860E-06,
                       5.39474560E-10, -3.24523680E-14, -3.64504140E+03,
                      -1.67575580E+00])),
        transport=gas_transport(geom='nonlinear',
                                diam=3.97,
                                well_depth=436.0,
                                rot_relax=2.0))

species(name='H2CC',
        atoms='C:2 H:2',
        thermo=(NASA([200.00, 1000.00],
                     [ 3.28154941E+00,  6.97642650E-03, -2.38527914E-06,
                      -1.21077631E-09,  9.82041734E-13,  4.83191706E+04,
                       5.92035686E+00]),
                NASA([1000.00, 6000.00],
                     [ 4.27807305E+00,  4.75622626E-03, -1.63007378E-06,
                       2.54622680E-10, -1.48860086E-14,  4.80140478E+04,
                       6.39978600E-01])),
        transport=gas_transport(geom='nonlinear',
                                diam=4.1,
                                well_depth=209.0,
                                rot_relax=2.5))

species(name='CH3O2',
        atoms='C:1 H:3 O:2',
        thermo=(NASA([200.00, 1000.00],
                     [ 4.97169544E+00, -5.29356557E-03,  4.77334149E-05,
                      -5.77065617E-08,  2.22219969E-11, -1.29022161E+02,
                       2.81501182E+00]),
                NASA([1000.00, 6000.00],
                     [ 5.55530486E+00,  9.12236137E-03, -3.23851661E-06,
                       5.18713798E-10, -3.08834151E-14, -1.03569402E+03,
                      -3.99158547E+00])),
        transport=gas_transport(geom='nonlinear',
                                diam=3.626,
                                well_depth=481.8,
                                rot_relax=1.0))

species(name='CH3OOH',
        atoms='C:1 H:4 O:2',
        thermo=(NASA([200.00, 1000.00],
                     [ 2.90540897E+00,  1.74994735E-02,  5.28243630E-06,
                      -2.52827275E-08,  1.34368212E-11, -1.68894632E+04,
                       1.13741987E+01]),
                NASA([1000.00, 6000.00],
                     [ 7.76538058E+00,  8.61499712E-03, -2.98006935E-06,
                       4.68638071E-10, -2.75339255E-14, -1.82979984E+04,
                      -1.43992663E+01])),
        transport=gas_transport(geom='nonlinear',
                                diam=3.626,
                                well_depth=481.8,
                                rot_relax=1.0))

species(name='C2H5O2',
        atoms='C:2 H:5 O:2',
        thermo=(NASA([200.00, 1000.00],
                     [ 4.50099327E+00,  6.87965342E-03,  4.74143971E-05,
                      -6.92287127E-08,  2.87395324E-11, -5.39547911E+03,
                       7.91490068E+00]),
                NASA([1000.00, 6000.00],
                     [ 8.88872432E+00,  1.35833179E-02, -4.91116949E-06,
                       7.92343362E-10, -4.73525704E-14, -7.44107388E+03,
                      -1.90789836E+01])),
        transport=gas_transport(geom='nonlinear',
                                diam=4.41,
                                well_depth=470.6,
                                rot_relax=1.5))

species(name='C2H5OOH',
        atoms='C:2 H:6 O:2',
        thermo=(NASA([200.00, 1000.00],
                     [ 4.14672004E+00,  9.78668137E-03,  4.91492257E-05,
                      -7.42532076E-08,  3.11169441E-11, -2.20469219E+04,
                       9.84024999E+00]),